------- HydroDyn v2.03.* Input File --------------------------------------------
IEA 15 MW offshore reference model jacket configuration in 50m water depth
False            Echo           - Echo the input file data (flag)
---------------------- ENVIRONMENTAL CONDITIONS --------------------------------
        "default"   WtrDens        - Water density (kg/m^3)
        "default"   WtrDpth        - Water depth (meters)
        "default"   MSL2SWL        - Offset between still-water level and mean sea level (meters) [positive upward; unused when WaveMod = 6; must be zero if PotMod=1 or 2]
---------------------- WAVES ---------------------------------------------------
             2   WaveMod        - Incident wave kinematics model {0: none=still water, 1: regular (periodic), 1P#: regular with user-specified phase, 2: JONSWAP/Pierson-Moskowitz spectrum (irregular), 3: White noise spectrum (irregular), 4: user-defined spectrum from routine UserWaveSpctrm (irregular), 5: Externally generated wave-elevation time series, 6: Externally generated full wave-kinematics time series [option 6 is invalid for PotMod/=0]} (switch)
             0   WaveStMod      - Model for stretching incident wave kinematics to instantaneous free surface {0: none=no stretching, 1: vertical stretching, 2: extrapolation stretching, 3: Wheeler stretching} (switch) [unused when WaveMod=0 or when PotMod/=0]
          3630   WaveTMax       - Analysis time for incident wave calculations (sec) [unused when WaveMod=0; determines WaveDOmega=2Pi/WaveTMax in the IFFT]
          0.25   WaveDT         - Time step for incident wave calculations     (sec) [unused when WaveMod=0; 0.1<=WaveDT<=1.0 recommended; determines WaveOmegaMax=Pi/WaveDT in the IFFT]
          4.52   WaveHs         - Significant wave height of incident waves (meters) [used only when WaveMod=1, 2, or 3]
          9.45   WaveTp         - Peak-spectral period of incident waves       (sec) [used only when WaveMod=1 or 2]
"DEFAULT"        WavePkShp      - Peak-shape parameter of incident wave spectrum (-) or DEFAULT (string) [used only when WaveMod=2; use 1.0 for Pierson-Moskowitz]
       0.15708   WvLowCOff      - Low  cut-off frequency or lower frequency limit of the wave spectrum beyond which the wave spectrum is zeroed (rad/s) [unused when WaveMod=0, 1, or 6]
           3.2   WvHiCOff       - High cut-off frequency or upper frequency limit of the wave spectrum beyond which the wave spectrum is zeroed (rad/s) [unused when WaveMod=0, 1, or 6]
           120   WaveDir        - Incident wave propagation heading direction                         (degrees) [unused when WaveMod=0 or 6]
             0   WaveDirMod     - Directional spreading function {0: none, 1: COS2S}                  (-)       [only used when WaveMod=2,3, or 4]
             1   WaveDirSpread  - Wave direction spreading coefficient ( > 0 )                        (-)       [only used when WaveMod=2,3, or 4 and WaveDirMod=1]
             1   WaveNDir       - Number of wave directions                                           (-)       [only used when WaveMod=2,3, or 4 and WaveDirMod=1; odd number only]
            90   WaveDirRange   - Range of wave directions (full range: WaveDir +/- 1/2*WaveDirRange) (degrees) [only used when WaveMod=2,3,or 4 and WaveDirMod=1]
     123456789   WaveSeed(1)    - First  random seed of incident waves [-2147483648 to 2147483647]    (-)       [unused when WaveMod=0, 5, or 6]
      RANLUX     WaveSeed(2)    - Second random seed of incident waves [-2147483648 to 2147483647]    (-)       [unused when WaveMod=0, 5, or 6] 
TRUE             WaveNDAmp      - Flag for normally distributed amplitudes                            (flag)    [only used when WaveMod=2, 3, or 4]
""               WvKinFile      - Root name of externally generated wave data file(s)        (quoted string)    [used only when WaveMod=5 or 6]
             1   NWaveElev      - Number of points where the incident wave elevations can be computed (-)       [maximum of 9 output locations]
             0   WaveElevxi     - List of xi-coordinates for points where the incident wave elevations can be output (meters) [NWaveElev points, separated by commas or white space; usused if NWaveElev = 0]
             0   WaveElevyi     - List of yi-coordinates for points where the incident wave elevations can be output (meters) [NWaveElev points, separated by commas or white space; usused if NWaveElev = 0]
---------------------- 2ND-ORDER WAVES ----------------------------------------- [unused with WaveMod=0 or 6]
False            WvDiffQTF      - Full difference-frequency 2nd-order wave kinematics (flag)
False            WvSumQTF       - Full summation-frequency  2nd-order wave kinematics (flag)
             0   WvLowCOffD     - Low  frequency cutoff used in the difference-frequencies (rad/s) [Only used with a difference-frequency method]
       3.04292   WvHiCOffD      - High frequency cutoff used in the difference-frequencies - need not be set higher than the peak-spectral frequency of the first-order wave spectrum (ωp = 2π/WaveTp) to minimize computational expense. (rad/s) [Only used with a difference-frequency method]
      0.314159   WvLowCOffS     - Low  frequency cutoff used in the summation-frequencies  (rad/s) [Only used with a summation-frequency  method]
           3.2   WvHiCOffS      - High frequency cutoff used in the summation-frequencies  (rad/s) [Only used with a summation-frequency  method]
---------------------- CURRENT ------------------------------------------------- [unused with WaveMod=6]
             0   CurrMod        - Current profile model {0: none=no current, 1: standard, 2: user-defined from routine UserCurrent} (switch)
             0   CurrSSV0       - Sub-surface current velocity at still water level  (m/s) [used only when CurrMod=1]
"DEFAULT"        CurrSSDir      - Sub-surface current heading direction (degrees) or DEFAULT (string) [used only when CurrMod=1]
            20   CurrNSRef      - Near-surface current reference depth            (meters) [used only when CurrMod=1]
             0   CurrNSV0       - Near-surface current velocity at still water level (m/s) [used only when CurrMod=1]
             0   CurrNSDir      - Near-surface current heading direction         (degrees) [used only when CurrMod=1]
             0   CurrDIV        - Depth-independent current velocity                 (m/s) [used only when CurrMod=1]
             0   CurrDIDir      - Depth-independent current heading direction    (degrees) [used only when CurrMod=1]
---------------------- FLOATING PLATFORM --------------------------------------- [unused with WaveMod=6]
             0   PotMod         - Potential-flow model {0: none=no potential flow, 1: frequency-to-time-domain transforms based on WAMIT output, 2: fluid-impulse theory (FIT)} (switch)
	     0   ExctnMod       - Wave Excitation model {0: None, 1: DFT, 2: state-space} (switch) [only used when PotMod=1; STATE-SPACE REQUIRES *.ssexctn INPUT FILE]
	     0   RdtnMod        - Radiation memory-effect model {0: no memory-effect calculation, 1: convolution, 2: state-space} (switch) [only used when PotMod=1; STATE-SPACE REQUIRES *.ss INPUT FILE]
	   60.0  RdtnTMax       - Analysis time for wave radiation kernel calculations (sec) [only used when PotMod=1; determines RdtnDOmega=Pi/RdtnTMax in the cosine transform; MAKE SURE THIS IS LONG ENOUGH FOR THE RADIATION IMPULSE RESPONSE FUNCTIONS TO DECAY TO NEAR-ZERO FOR THE GIVEN PLATFORM!]
	   0.0   RdtnDT         - Time step for wave radiation kernel calculations (sec) [only used when PotMod=1; DT<=RdtnDT<=0.1 recommended; determines RdtnOmegaMax=Pi/RdtnDT in the cosine transform]
	     1   NBody          - Number of WAMIT bodies to be used (-) [>=1; only used when PotMod=1. If NBodyMod=1, the WAMIT data contains a vector of size 6*NBody x 1 and matrices of size 6*NBody x 6*NBody; if NBodyMod>1, there are NBody sets of WAMIT data each with a vector of size 6 x 1 and matrices of size 6 x 6]
	     1   NBodyMod       - Body coupling model {1: include coupling terms between each body and NBody in HydroDyn equals NBODY in WAMIT, 2: neglect coupling terms between each body and NBODY=1 with XBODY=0 in WAMIT, 3: Neglect coupling terms between each body and NBODY=1 with XBODY=/0 in WAMIT} (switch) [only used when PotMod=1]
"unused"         PotFile        - Root name of potential-flow model data; WAMIT output files containing the linear, nondimensionalized, hydrostatic restoring matrix (.hst), frequency-dependent hydrodynamic added mass matrix and damping matrix (.1), and frequency- and direction-dependent wave excitation force vector per unit wave amplitude (.3) (quoted string) [MAKE SURE THE FREQUENCIES INHERENT IN THESE WAMIT FILES SPAN THE PHYSICALLY-SIGNIFICANT RANGE OF FREQUENCIES FOR THE GIVEN PLATFORM; THEY MUST CONTAIN THE ZERO- AND INFINITE-FREQUENCY LIMITS!]
             1   WAMITULEN      - Characteristic body length scale used to redimensionalize WAMIT output (meters) [only used when PotMod=1]
	   0.0   PtfmRefxt      - The xt offset of the body reference point(s) from (0,0,0) (meters) [1 to NBody] [only used when PotMod=1]
	   0.0   PtfmRefyt      - The yt offset of the body reference point(s) from (0,0,0) (meters) [1 to NBody] [only used when PotMod=1]
	   0.0   PtfmRefzt      - The zt offset of the body reference point(s) from (0,0,0) (meters) [1 to NBody] [only used when PotMod=1. If NBodyMod=2,PtfmRefzt=0.0]
	   0.0   PtfmRefztRot    - The rotation about zt of the body reference frame(s) from xt/yt (degrees) [1 to NBody] [only used when PotMod=1]
	   0.0   PtfmVol0       - Displaced volume of water when the platform is in its undisplaced position (m^3) [only used when PotMod=1; USE THE SAME VALUE COMPUTED BY WAMIT AS OUTPUT IN THE .OUT FILE!]
           0.0   PtfmCOBxt      - The xt offset of the center of buoyancy (COB) from the platform reference point (meters)  [only used when PotMod=1]
           0.0   PtfmCOByt      - The yt offset of the center of buoyancy (COB) from the platform reference point (meters)  [only used when PotMod=1]
---------------------- 2ND-ORDER FLOATING PLATFORM FORCES ---------------------- [unused with WaveMod=0 or 6, or PotMod=0 or 2]
             0   MnDrift        - Mean-drift 2nd-order forces computed                                       {0: None; [7, 8, 9, 10, 11, or 12]: WAMIT file to use} [Only one of MnDrift, NewmanApp, or DiffQTF can be non-zero]
             0   NewmanApp      - Mean- and slow-drift 2nd-order forces computed with Newman's approximation {0: None; [7, 8, 9, 10, 11, or 12]: WAMIT file to use} [Only one of MnDrift, NewmanApp, or DiffQTF can be non-zero. Used only when WaveDirMod=0]
             0   DiffQTF        - Full difference-frequency 2nd-order forces computed with full QTF          {0: None; [10, 11, or 12]: WAMIT file to use}          [Only one of MnDrift, NewmanApp, or DiffQTF can be non-zero]
             0   SumQTF         - Full summation -frequency 2nd-order forces computed with full QTF          {0: None; [10, 11, or 12]: WAMIT file to use}
---------------------- PLATFORM ADDITIONAL STIFFNESS AND DAMPING  --------------
           0.0   AddF0    - Additional preload (N, N-m) [If NBodyMod=1, one size 6*NBody x 1 vector; if NBodyMod>1, NBody size 6 x 1 vectors]
           0.0   
           0.0   
           0.0   
           0.0   
           0.0   
             0             0             0             0             0             0   AddCLin  - Additional linear stiffness (N/m, N/rad, N-m/m, N-m/rad)
             0             0             0             0             0             0
             0             0             0             0             0             0
             0             0             0             0             0             0
             0             0             0             0             0             0
             0             0             0             0             0             0
             0             0             0             0             0             0   AddBLin  - Additional linear damping(N/(m/s), N/(rad/s), N-m/(m/s), N-m/(rad/s))
             0             0             0             0             0             0
             0             0       4389794.6           0             0             0
             0             0             0             0             0             0
             0             0             0             0             0             0
             0             0             0             0             0             0
             0             0             0             0             0             0   AddBQuad - Additional quadratic drag(N/(m/s)^2, N/(rad/s)^2, N-m(m/s)^2, N-m/(rad/s)^2)
             0             0             0             0             0             0
             0             0             0             0             0             0
             0             0             0             0             0             0
             0             0             0             0             0             0
             0             0             0             0             0             0
---------------------- AXIAL COEFFICIENTS --------------------------------------
             1   NAxCoef        - Number of axial coefficients (-)
AxCoefID  AxCd     AxCa     AxCp
   (-)    (-)      (-)      (-)
    1     0.00     0.00     1.00
---------------------- MEMBER JOINTS -------------------------------------------
33	NJoints		- Number of joints (-)   [must be exactly 0 or at least 2]
JointID	Jointxi		Jointyi		Jointzi		JointAxID	JointOvrlp	[JointOvrlp= 0: do nothing atjoint, 1: eliminate overlaps by calculating super member]
(-)	(m)		(m)		(m)		(-)		(switch)
1	0.0		10		30.0		1		0
2	8.66		-5		30.0		1		0
3	-8.66		-5		30.0		1		0
4	0.0		8.66		19.0		1		0
5	7.5		-4.33		19.0		1		0
6	-7.5		-4.33		19.0		1		0
7	0.0		10.623		6.0		1		0
8	9.2		-5.312		6.0		1		0
9	-9.2		-5.312		6.0		1		0
10	0.0		12.888		-9.0		1		0
11	11.162		-6.444		-9.0		1		0
12	-11.162		-6.444		-9.0		1		0
13	0.0		15.455		-26.0		1		0
14	13.385		-7.728		-26.0		1		0
15	-13.385		-7.728		-26.0		1		0
16	0.0		18.475		-46.0		1		0
17	16.0		-9.238		-46.0		1		0
18	-16.0		-9.238		-46.0		1		0
19	0.0		18.475		-50.1		1		0
20	16.0		-9.238		-50.1		1		0
21	-16.0		-9.238		-50.1		1		0
22	4.175		2.41		12.5		1		0
23	0.0		-4.821		12.5		1		0
24	-4.175		2.41		12.5		1		0
25	5.09		2.939		-1.5		1		0
26	0.0		-5.878		-1.5		1		0
27	-5.09		2.939		-1.5		1		0
28	6.137		3.543		-17.5		1		0
29	0.0		-7.086		-17.5		1		0
30	-6.137		3.543		-17.5		1		0
31	7.346		4.241		-36.0		1		0
32	0.0		-8.483		-36.0		1		0
33	-7.346		4.241		-36.0		1		0
---------------------- MEMBER CROSS-SECTION PROPERTIES -------------------------
            10   NPropSets      - Number of member property sets (-)
PropSetID    PropD         PropThck
   (-)        (m)            (m)
   1        1.7             0.080
   2        1.7             0.080
   3        1.7             0.080
   4        1.9             0.090
   5        2.4             0.090
   6        3.0             0.100
   7        1.0             0.020
   8        1.1             0.020
   9        1.1             0.020
  10        1.5             0.040
---------------------- SIMPLE HYDRODYNAMIC COEFFICIENTS (model 1) --------------
  SimplCd    SimplCdMG    SimplCa    SimplCaMG    SimplCp    SimplCpMG   SimplAxCd  SimplAxCdMG  SimplAxCa  SimplAxCaMG  SimplAxCp  SimplAxCpMG
    (-)         (-)         (-)         (-)         (-)         (-)         (-)         (-)         (-)         (-)         (-)         (-)    
    1.0         1.0         1.0         1.0         1.0         1.0         0.0         0.0         1.0         1.0         1.0         1.0    
---------------------- DEPTH-BASED HYDRODYNAMIC COEFFICIENTS (model 2) ---------
             0   NCoefDpth       - Number of depth-dependent coefficients (-)
   Dpth       DpthCd     DpthCdMG     DpthCa     DpthCaMG     DpthCp     DpthCpMG    DpthAxCd   DpthAxCdMG   DpthAxCa   DpthAxCaMG   DpthAxCp   DpthAxCpMG 
    (m)         (-)         (-)         (-)         (-)         (-)         (-)         (-)         (-)         (-)         (-)         (-)         (-)    
---------------------- MEMBER-BASED HYDRODYNAMIC COEFFICIENTS (model 3) --------
0           NCoefMembers - Number of member-based coefficients (-)
MemberID_HydC  MemberCd1   MemberCd2  MemberCdMG1 MemberCdMG2  MemberCa1   MemberCa2  MemberCaMG1 MemberCaMG2  MemberCp1   MemberCp2  MemberCpMG1 MemberCpMG2 MemberAxCd1 MemberAxCd2 MemberAxCdMG1 MemberAxCdMG2 MemberAxCa1 MemberAxCa2 MemberAxCaMG1 MemberAxCaMG2 MemberAxCp1 MemberAxCp2 MemberAxCpMG1 MemberAxCpMG2
    (-)         (-)         (-)         (-)         (-)         (-)         (-)         (-)         (-)         (-)         (-)         (-)         (-)         (-)         (-)         (-)         (-)         (-)         (-)         (-)         (-)         (-)         (-)         (-)         (-)    
-------------------- MEMBERS -------------------------------------------------
66		NMembers		- Number of members (-)
MemberID	MJointID1	MJointID2	MPropSetID1	MPropSetID2	MDivSize	MCoefMod	PropPot	[MCoefMod=1: use simple coeff table, 2: use depth-based coeff table, 3: use member-basedcoeff table] [ PropPot/=0 if member is modeled with potential-flow theory]
(-)		(-)		(-)		(-)		(-)		(m)		(switch)	(flag)
1		1		4		1		1		1.0000		1		FALSE
2		2		5		1		1		1.0000		1		FALSE
3		3		6		1		1		1.0000		1		FALSE
4		4		7		2		2		1.0000		1		FALSE
5		5		8		2		2		1.0000		1		FALSE
6		6		9		2		2		1.0000		1		FALSE
7		7		10		3		3		1.0000		1		FALSE
8		8		11		3		3		1.0000		1		FALSE
9		9		12		3		3		1.0000		1		FALSE
10		10		13		4		4		1.0000		1		FALSE
11		11		14		4		4		1.0000		1		FALSE
12		12		15		4		4		1.0000		1		FALSE
13		13		16		5		5		1.0000		1		FALSE
14		14		17		5		5		1.0000		1		FALSE
15		15		18		5		5		1.0000		1		FALSE
16		16		19		6		6		1.0000		1		FALSE
17		17		20		6		6		1.0000		1		FALSE
18		18		21		6		6		1.0000		1		FALSE
19		22		4		7		7		1.0000		1		FALSE
20		22		5		7		7		1.0000		1		FALSE
21		22		7		7		7		1.0000		1		FALSE
22		22		8		7		7		1.0000		1		FALSE
23		23		5		7		7		1.0000		1		FALSE
24		23		6		7		7		1.0000		1		FALSE
25		23		8		7		7		1.0000		1		FALSE
26		23		9		7		7		1.0000		1		FALSE
27		24		6		7		7		1.0000		1		FALSE
28		24		4		7		7		1.0000		1		FALSE
29		24		9		7		7		1.0000		1		FALSE
30		24		7		7		7		1.0000		1		FALSE
31		25		7		8		8		1.0000		1		FALSE
32		25		8		8		8		1.0000		1		FALSE
33		25		10		8		8		1.0000		1		FALSE
34		25		11		8		8		1.0000		1		FALSE
35		26		8		8		8		1.0000		1		FALSE
36		26		9		8		8		1.0000		1		FALSE
37		26		11		8		8		1.0000		1		FALSE
38		26		12		8		8		1.0000		1		FALSE
39		27		9		8		8		1.0000		1		FALSE
40		27		7		8		8		1.0000		1		FALSE
41		27		12		8		8		1.0000		1		FALSE
42		27		10		8		8		1.0000		1		FALSE
43		28		10		9		9		1.0000		1		FALSE
44		28		11		9		9		1.0000		1		FALSE
45		28		13		9		9		1.0000		1		FALSE
46		28		14		9		9		1.0000		1		FALSE
47		29		11		9		9		1.0000		1		FALSE
48		29		12		9		9		1.0000		1		FALSE
49		29		14		9		9		1.0000		1		FALSE
50		29		15		9		9		1.0000		1		FALSE
51		30		12		9		9		1.0000		1		FALSE
52		30		10		9		9		1.0000		1		FALSE
53		30		15		9		9		1.0000		1		FALSE
54		30		13		9		9		1.0000		1		FALSE
55		31		13		10		10		1.0000		1		FALSE
56		31		14		10		10		1.0000		1		FALSE
57		31		16		10		10		1.0000		1		FALSE
58		31		17		10		10		1.0000		1		FALSE
59		32		14		10		10		1.0000		1		FALSE
60		32		15		10		10		1.0000		1		FALSE
61		32		17		10		10		1.0000		1		FALSE
62		32		18		10		10		1.0000		1		FALSE
63		33		15		10		10		1.0000		1		FALSE
64		33		13		10		10		1.0000		1		FALSE
65		33		18		10		10		1.0000		1		FALSE
66		33		16		10		10		1.0000		1		FALSE
---------------------- FILLED MEMBERS ------------------------------------------
             2   NFillGroups     - Number of filled member groups (-) [If FillDens = DEFAULT, then FillDens = WtrDens; FillFSLoc is related to MSL2SWL]
FillNumM FillMList             													FillFSLoc     FillDens
(-)      (-)                   													(m)           (kg/m^3)
1	7 8 9 10 11 12 13 14 15 16 17 18											0		1025
2       31 32 33 34 35 36 37 38 39 40 41 41 42 43 44 45 46 47 48 49 50 51 52 53 54 55 56 57 58 59 60 61 62 63 64 65 66		0		1025
---------------------- MARINE GROWTH -------------------------------------------
            2   NMGDepths      - Number of marine-growth depths specified (-)
MGDpth     MGThck       MGDens
(m)        (m)         (kg/m^3)
2.5        0.09         1325
-40.00     0.09         1325
---------------------- MEMBER OUTPUT LIST --------------------------------------
             0   NMOutputs      - Number of member outputs (-) [must be < 10]
MemberID   NOutLoc    NodeLocs [NOutLoc < 10; node locations are normalized distance from the start of the member, and must be >=0 and <= 1] [unused if NMOutputs=0]
  (-)        (-)        (-)
---------------------- JOINT OUTPUT LIST ---------------------------------------
             2   NJOutputs      - Number of joint outputs [Must be < 10]
   1,2           JOutLst        - List of JointIDs which are to be output (-)[unused if NJOutputs=0]
---------------------- OUTPUT --------------------------------------------------
True             HDSum          - Output a summary file [flag]
False            OutAll         - Output all user-specified member and joint loads (only at each member end, not interior locations) [flag]
             2   OutSwtch       - Output requested channels to: [1=Hydrodyn.out, 2=GlueCode.out, 3=both files]
"ES11.4e2"       OutFmt         - Output format for numerical results (quoted string) [not checked for validity!]
"A11"            OutSFmt        - Output format for header strings (quoted string) [not checked for validity!]
---------------------- OUTPUT CHANNELS -----------------------------------------
"Wave1Elev"               - Wave elevation at the WAMIT reference point (0,0)
END of output channels and end of file. (the word "END" must appear in the first 3 columns of this line)
